!- Windows Line endings

Version,
    9.0;                      !- Version Identifier

SimulationControl,
    Yes,                      !- Do Zone Sizing Calculation
    Yes,                      !- Do System Sizing Calculation
    Yes,                      !- Do Plant Sizing Calculation
    No,                       !- Run Simulation for Sizing Periods
    YES;                      !- Run Simulation for Weather File Run Periods

Building,
    OfficeLarge,              !- Name
    0,                        !- North Axis
    City,                     !- Terrain
    0.04,                     !- Loads Convergence Tolerance Value
    0.2,                      !- Temperature Convergence Tolerance Value
    FullInteriorAndExterior,    !- Solar Distribution
    25,                       !- Maximum Number of Warmup Days
    6;                        !- Minimum Number of Warmup Days

ShadowCalculation,
    AverageOverDaysInFrequency,    !- Calculation Method
    30;                       !- Calculation Frequency

SurfaceConvectionAlgorithm:Inside,
    TARP;                     !- Algorithm

SurfaceConvectionAlgorithm:Outside,
    TARP;                     !- Algorithm

HeatBalanceAlgorithm,
    ConductionTransferFunction;    !- Algorithm

Timestep,
    60;                       !- Number of Timesteps per Hour

ConvergenceLimits,
    1,                        !- Minimum System Timestep
    20;                       !- Maximum HVAC Iterations

Site:Location,
    Buffalo.Niagara.Intl.AP_NY_USA WMO=725280,    !- Name
    42.94,                    !- Latitude
    -78.74,                   !- Longitude
    -5,                       !- Time Zone
    215;                      !- Elevation

SizingPeriod:DesignDay,
    Buffalo.Niagara.Intl.AP_NY_USA Ann Htg 99.6% Condns DB,    !- Name
    1,                        !- Month
    21,                       !- Day of Month
    WinterDesignDay,          !- Day Type
    -16.3,                    !- Maximum DryBulb Temperature
    0,                        !- Daily DryBulb Temperature Range
    DefaultMultipliers,       !- DryBulb Temperature Range Modifier Type
    ,                         !- DryBulb Temperature Range Modifier Day Schedule Name
    Wetbulb,                  !- Humidity Condition Type
    -16.3,                    !- Wetbulb or DewPoint at Maximum DryBulb
    ,                         !- Humidity Condition Day Schedule Name
    ,                         !- Humidity Ratio at Maximum DryBulb
    ,                         !- Enthalpy at Maximum DryBulb
    ,                         !- Daily WetBulb Temperature Range
    98769,                    !- Barometric Pressure
    5.1,                      !- Wind Speed
    270,                      !- Wind Direction
    No,                       !- Rain Indicator
    No,                       !- Snow Indicator
    No,                       !- Daylight Saving Time Indicator
    ASHRAEClearSky,           !- Solar Model Indicator
    ,                         !- Beam Solar Day Schedule Name
    ,                         !- Diffuse Solar Day Schedule Name
    ,                         !- ASHRAE Clear Sky Optical Depth for Beam Irradiance taub
    ,                         !- ASHRAE Clear Sky Optical Depth for Diffuse Irradiance taud
    0;                        !- Sky Clearness

SizingPeriod:DesignDay,
    Buffalo.Niagara.Intl.AP_NY_USA Ann Clg .4% Condns DB=>MWB,    !- Name
    7,                        !- Month
    21,                       !- Day of Month
    SummerDesignDay,          !- Day Type
    30.3,                     !- Maximum DryBulb Temperature
    9.3,                      !- Daily DryBulb Temperature Range
    DefaultMultipliers,       !- DryBulb Temperature Range Modifier Type
    ,                         !- DryBulb Temperature Range Modifier Day Schedule Name
    Wetbulb,                  !- Humidity Condition Type
    21.8,                     !- Wetbulb or DewPoint at Maximum DryBulb
    ,                         !- Humidity Condition Day Schedule Name
    ,                         !- Humidity Ratio at Maximum DryBulb
    ,                         !- Enthalpy at Maximum DryBulb
    ,                         !- Daily WetBulb Temperature Range
    98769,                    !- Barometric Pressure
    5.7,                      !- Wind Speed
    240,                      !- Wind Direction
    No,                       !- Rain Indicator
    No,                       !- Snow Indicator
    No,                       !- Daylight Saving Time Indicator
    ASHRAETau,                !- Solar Model Indicator
    ,                         !- Beam Solar Day Schedule Name
    ,                         !- Diffuse Solar Day Schedule Name
    0.462,                    !- ASHRAE Clear Sky Optical Depth for Beam Irradiance taub
    2.001;                    !- ASHRAE Clear Sky Optical Depth for Diffuse Irradiance taud

RunPeriod,
    ,                         !- Name
    1,                        !- Begin Month
    1,                        !- Begin Day of Month
    ,                         !- Begin Year
    1,                        !- End Month
    10,                       !- End Day of Month
    ,                         !- End Year
    Sunday,                   !- Day of Week for Start Day
    No,                       !- Use Weather File Holidays and Special Days
    No,                       !- Use Weather File Daylight Saving Period
    No,                       !- Apply Weekend Holiday Rule
    Yes,                      !- Use Weather File Rain Indicators
    Yes;                      !- Use Weather File Snow Indicators

RunPeriodControl:SpecialDays,
    New Years Day,            !- Name
    January 1,                !- Start Date
    1,                        !- Duration
    Holiday;                  !- Special Day Type

RunPeriodControl:SpecialDays,
    Veterans Day,             !- Name
    November 11,              !- Start Date
    1,                        !- Duration
    Holiday;                  !- Special Day Type

RunPeriodControl:SpecialDays,
    Christmas,                !- Name
    December 25,              !- Start Date
    1,                        !- Duration
    Holiday;                  !- Special Day Type

RunPeriodControl:SpecialDays,
    Independence Day,         !- Name
    July 4,                   !- Start Date
    1,                        !- Duration
    Holiday;                  !- Special Day Type

RunPeriodControl:SpecialDays,
    MLK Day,                  !- Name
    3rd Monday in January,    !- Start Date
    1,                        !- Duration
    Holiday;                  !- Special Day Type

RunPeriodControl:SpecialDays,
    Presidents Day,           !- Name
    3rd Monday in February,    !- Start Date
    1,                        !- Duration
    Holiday;                  !- Special Day Type

RunPeriodControl:SpecialDays,
    Memorial Day,             !- Name
    Last Monday in May,       !- Start Date
    1,                        !- Duration
    Holiday;                  !- Special Day Type

RunPeriodControl:SpecialDays,
    Labor Day,                !- Name
    1st Monday in September,    !- Start Date
    1,                        !- Duration
    Holiday;                  !- Special Day Type

RunPeriodControl:SpecialDays,
    Columbus Day,             !- Name
    2nd Monday in October,    !- Start Date
    1,                        !- Duration
    Holiday;                  !- Special Day Type

RunPeriodControl:SpecialDays,
    Thanksgiving,             !- Name
    4th Thursday in November,    !- Start Date
    1,                        !- Duration
    Holiday;                  !- Special Day Type

RunPeriodControl:DaylightSavingTime,
    2nd Sunday in March,      !- Start Date
    1st Sunday in November;    !- End Date

Site:GroundTemperature:FCfactorMethod,
    9.7,                      !- January Ground Temperature
    6,                        !- February Ground Temperature
    -2.2,                     !- March Ground Temperature
    -3.4,                     !- April Ground Temperature
    -4.2,                     !- May Ground Temperature
    2.7,                      !- June Ground Temperature
    7.5,                      !- July Ground Temperature
    13.7,                     !- August Ground Temperature
    18.6,                     !- September Ground Temperature
    22,                       !- October Ground Temperature
    20.7,                     !- November Ground Temperature
    16.5;                     !- December Ground Temperature

Site:WaterMainsTemperature,
    Correlation,              !- Calculation Method
    ,                         !- Temperature Schedule Name
    8.96666666666667,         !- Annual Average Outdoor Air Temperature
    26.2;                     !- Maximum Difference In Monthly Average Outdoor Air Temperatures

ScheduleTypeLimits,
    Any Number;               !- Name

ScheduleTypeLimits,
    Fraction,                 !- Name
    0,                        !- Lower Limit Value
    1,                        !- Upper Limit Value
    Continuous;               !- Numeric Type

ScheduleTypeLimits,
    Temperature,              !- Name
    -60,                      !- Lower Limit Value
    200,                      !- Upper Limit Value
    Continuous;               !- Numeric Type

ScheduleTypeLimits,
    On/Off,                   !- Name
    0,                        !- Lower Limit Value
    1,                        !- Upper Limit Value
    Discrete;                 !- Numeric Type

ScheduleTypeLimits,
    Control Type,             !- Name
    0,                        !- Lower Limit Value
    4,                        !- Upper Limit Value
    Discrete;                 !- Numeric Type

ScheduleTypeLimits,
    Humidity,                 !- Name
    10,                       !- Lower Limit Value
    90,                       !- Upper Limit Value
    Continuous;               !- Numeric Type

ScheduleTypeLimits,
    Number;                   !- Name

Schedule:Compact,
    DataCenter_ExtraElecHeatC_Sch,    !- Name
    On/Off,                   !- Schedule Type Limits Name
    Through: 12/31,           !- Field 1
    For: AllDays,             !- Field 2
    Until: 24:00,             !- Field 3
    0;                        !- Field 4

Schedule:Compact,
    DataCenter_ExtraWaterHeatC_Sch,    !- Name
    On/Off,                   !- Schedule Type Limits Name
    Through: 12/31,           !- Field 1
    For: AllDays,             !- Field 2
    Until: 24:00,             !- Field 3
    1;                        !- Field 4

Schedule:Compact,
    Exterior_lighting_schedule_a,    !- Name
    fraction,                 !- Schedule Type Limits Name
    Through:12/31,            !- Field 1
    For:AllDays,              !- Field 2
    Until: 06:00,             !- Field 3
    0,                        !- Field 4
    Until: 24:00,             !- Field 5
    1;                        !- Field 6

Schedule:Compact,
    Exterior_lighting_schedule_b,    !- Name
    fraction,                 !- Schedule Type Limits Name
    Through:12/31,            !- Field 1
    For:AllDays,              !- Field 2
    Until: 06:00,             !- Field 3
    0.7,                      !- Field 4
    Until: 24:00,             !- Field 5
    1;                        !- Field 6

Schedule:Compact,
    Exterior_lighting_schedule_a_IECC2015,    !- Name
    fraction,                 !- Schedule Type Limits Name
    Through:12/31,            !- Field 1
    For:Weekdays SummerDesignDay,    !- Field 2
    Until: 07:00,             !- Field 3
    0,                        !- Field 4
    Until: 22:00,             !- Field 5
    1,                        !- Field 6
    Until: 24:00,             !- Field 7
    0,                        !- Field 8
    For:Saturdays,            !- Field 9
    Until: 07:00,             !- Field 10
    0,                        !- Field 11
    Until: 18:00,             !- Field 12
    1,                        !- Field 13
    Until: 24:00,             !- Field 14
    0,                        !- Field 15
    For:AllOtherDays,         !- Field 16
    Until: 24:00,             !- Field 17
    0;                        !- Field 18

Schedule:Compact,
    Exterior_lighting_schedule_b_2016,    !- Name
    fraction,                 !- Schedule Type Limits Name
    Through:12/31,            !- Field 1
    For:AllDays,              !- Field 2
    Until: 06:00,             !- Field 3
    0.5,                      !- Field 4
    Until: 24:00,             !- Field 5
    1;                        !- Field 6

Schedule:Compact,
    Exterior_lighting_schedule_c_2016,    !- Name
    fraction,                 !- Schedule Type Limits Name
    Through:12/31,            !- Field 1
    For:AllDays,              !- Field 2
    Until: 06:00,             !- Field 3
    0.5,                      !- Field 4
    Until: 19:00,             !- Field 5
    1,                        !- Field 6
    Until: 24:00,             !- Field 7
    0.5;                      !- Field 8

Schedule:Compact,
    Hours_of_operation,       !- Name
    on/off,                   !- Schedule Type Limits Name
    Through: 12/31,           !- Field 1
    For: Weekdays SummerDesignDay,    !- Field 2
    Until: 06:00,             !- Field 3
    0.0,                      !- Field 4
    Until: 22:00,             !- Field 5
    1.0,                      !- Field 6
    Until: 24:00,             !- Field 7
    0.0,                      !- Field 8
    For: Saturday WinterDesignDay,    !- Field 9
    Until: 06:00,             !- Field 10
    0.0,                      !- Field 11
    Until: 18:00,             !- Field 12
    1.0,                      !- Field 13
    Until: 24:00,             !- Field 14
    0.0,                      !- Field 15
    For: Sunday Holidays AllOtherDays,    !- Field 16
    Until: 24:00,             !- Field 17
    0.0;                      !- Field 18

Schedule:Compact,
    ALWAYS_ON,                !- Name
    Fraction,                 !- Schedule Type Limits Name
    Through: 12/31,           !- Field 1
    For: AllDays,             !- Field 2
    Until: 24:00,             !- Field 3
    1.0;                      !- Field 4

Schedule:Compact,
    Exterior_Lgt_ALWAYS_ON,    !- Name
    Fraction,                 !- Schedule Type Limits Name
    Through: 12/31,           !- Field 1
    For: AllDays,             !- Field 2
    Until: 24:00,             !- Field 3
    1;                        !- Field 4

Schedule:Compact,
    Exterior_Lgt_189_1,       !- Name
    Fraction,                 !- Schedule Type Limits Name
    Through:12/31,            !- Field 1
    For:Weekdays,             !- Field 2
    Until:  9:00,             !- Field 3
    0.5,                      !- Field 4
    Until: 24:00,             !- Field 5
    1.0,                      !- Field 6
    For:Saturday,             !- Field 7
    Until:  9:00,             !- Field 8
    0.5,                      !- Field 9
    Until: 19:00,             !- Field 10
    1.0,                      !- Field 11
    Until: 24:00,             !- Field 12
    0.5,                      !- Field 13
    FOR: Sunday Holidays AllOtherDays,    !- Field 14
    Until:  9:00,             !- Field 15
    0.5,                      !- Field 16
    Until: 18:00,             !- Field 17
    1.0,                      !- Field 18
    Until: 24:00,             !- Field 19
    0.5;                      !- Field 20

Schedule:Compact,
    ALWAYS_OFF,               !- Name
    Fraction,                 !- Schedule Type Limits Name
    Through: 12/31,           !- Field 1
    For: AllDays,             !- Field 2
    Until: 24:00,             !- Field 3
    0.0;                      !- Field 4

Schedule:Compact,
    HVACOperationSchd,        !- Name
    on/off,                   !- Schedule Type Limits Name
    Through: 12/31,           !- Field 1
    For: Weekdays SummerDesignDay,    !- Field 2
    Until: 06:00,             !- Field 3
    0.0,                      !- Field 4
    Until: 22:00,             !- Field 5
    1.0,                      !- Field 6
    Until: 24:00,             !- Field 7
    0.0,                      !- Field 8
    For: Saturday WinterDesignDay,    !- Field 9
    Until: 06:00,             !- Field 10
    0.0,                      !- Field 11
    Until: 18:00,             !- Field 12
    1.0,                      !- Field 13
    Until: 24:00,             !- Field 14
    0.0,                      !- Field 15
    For: Sunday Holidays AllOtherDays,    !- Field 16
    Until: 24:00,             !- Field 17
    0.0;                      !- Field 18

Schedule:Compact,
    BLDG_LIGHT_SCH,           !- Name
    Fraction,                 !- Schedule Type Limits Name
    Through: 12/31,           !- Field 1
    For: Weekdays,            !- Field 2
    Until: 5:00,              !- Field 3
    0.05,                     !- Field 4
    Until: 7:00,              !- Field 5
    0.1,                      !- Field 6
    Until: 8:00,              !- Field 7
    0.3,                      !- Field 8
    Until: 17:00,             !- Field 9
    0.9,                      !- Field 10
    Until: 18:00,             !- Field 11
    0.5,                      !- Field 12
    Until: 20:00,             !- Field 13
    0.3,                      !- Field 14
    Until: 22:00,             !- Field 15
    0.2,                      !- Field 16
    Until: 23:00,             !- Field 17
    0.1,                      !- Field 18
    Until: 24:00,             !- Field 19
    0.05,                     !- Field 20
    For: SummerDesignDay,     !- Field 21
    Until: 24:00,             !- Field 22
    1,                        !- Field 23
    For: Saturday,            !- Field 24
    Until: 6:00,              !- Field 25
    0.05,                     !- Field 26
    Until: 8:00,              !- Field 27
    0.1,                      !- Field 28
    Until: 12:00,             !- Field 29
    0.3,                      !- Field 30
    Until: 17:00,             !- Field 31
    0.15,                     !- Field 32
    Until: 24:00,             !- Field 33
    0.05,                     !- Field 34
    For: WinterDesignDay,     !- Field 35
    Until: 24:00,             !- Field 36
    0,                        !- Field 37
    For: Sunday Holidays AllOtherDays,    !- Field 38
    Until: 24:00,             !- Field 39
    0.05;                     !- Field 40

Schedule:Compact,
    EXTERIOR_LIGHT_SCH,       !- Name
    Fraction,                 !- Schedule Type Limits Name
    Through: 12/31,           !- Field 1
    For: AllDays,             !- Field 2
    Until: 07:00,             !- Field 3
    1.0,                      !- Field 4
    Until: 19:00,             !- Field 5
    0.0,                      !- Field 6
    Until: 24:00,             !- Field 7
    1.0;                      !- Field 8

Schedule:Compact,
    BLDG_EQUIP_SCH,           !- Name
    Fraction,                 !- Schedule Type Limits Name
    Through: 12/31,           !- Field 1
    For: Weekdays,            !- Field 2
    Until: 06:00,             !- Field 3
    0.4,                      !- Field 4
    Until: 08:00,             !- Field 5
    0.4,                      !- Field 6
    Until: 12:00,             !- Field 7
    0.9,                      !- Field 8
    Until: 13:00,             !- Field 9
    0.8,                      !- Field 10
    Until: 17:00,             !- Field 11
    0.9,                      !- Field 12
    Until: 18:00,             !- Field 13
    0.5,                      !- Field 14
    Until: 24:00,             !- Field 15
    0.4,                      !- Field 16
    For: SummerDesignDay,     !- Field 17
    Until: 24:00,             !- Field 18
    1.0,                      !- Field 19
    For: Saturday,            !- Field 20
    Until: 06:00,             !- Field 21
    0.3,                      !- Field 22
    Until: 08:00,             !- Field 23
    0.4,                      !- Field 24
    Until: 12:00,             !- Field 25
    0.5,                      !- Field 26
    Until: 17:00,             !- Field 27
    0.35,                     !- Field 28
    Until: 19:00,             !- Field 29
    0.3,                      !- Field 30
    Until: 24:00,             !- Field 31
    0.3,                      !- Field 32
    For: WinterDesignDay,     !- Field 33
    Until: 24:00,             !- Field 34
    0.0,                      !- Field 35
    For: Sunday Holidays AllOtherDays,    !- Field 36
    Until: 06:00,             !- Field 37
    0.3,                      !- Field 38
    Until: 18:00,             !- Field 39
    0.3,                      !- Field 40
    Until: 24:00,             !- Field 41
    0.3;                      !- Field 42

Schedule:Compact,
    DataCenter_EQUIP_SCH,     !- Name
    Fraction,                 !- Schedule Type Limits Name
    Through: 1/31,            !- Field 1
    For: SummerDesignDay,     !- Field 2
    Until: 24:00,             !- Field 3
    1.0,                      !- Field 4
    For: WinterDesignDay,     !- Field 5
    Until: 24:00,             !- Field 6
    0.25,                     !- Field 7
    For: AllOtherDays,        !- Field 8
    Until: 24:00,             !- Field 9
    0.25,                     !- Field 10
    Through: 2/28,            !- Field 11
    For: SummerDesignDay,     !- Field 12
    Until: 24:00,             !- Field 13
    1.0,                      !- Field 14
    For: WinterDesignDay,     !- Field 15
    Until: 24:00,             !- Field 16
    0.25,                     !- Field 17
    For: AllOtherDays,        !- Field 18
    Until: 24:00,             !- Field 19
    0.5,                      !- Field 20
    Through: 3/31,            !- Field 21
    For: SummerDesignDay,     !- Field 22
    Until: 24:00,             !- Field 23
    1.0,                      !- Field 24
    For: WinterDesignDay,     !- Field 25
    Until: 24:00,             !- Field 26
    0.25,                     !- Field 27
    For: AllOtherDays,        !- Field 28
    Until: 24:00,             !- Field 29
    0.75,                     !- Field 30
    Through: 4/30,            !- Field 31
    For: SummerDesignDay,     !- Field 32
    Until: 24:00,             !- Field 33
    1.0,                      !- Field 34
    For: WinterDesignDay,     !- Field 35
    Until: 24:00,             !- Field 36
    0.25,                     !- Field 37
    For: AllOtherDays,        !- Field 38
    Until: 24:00,             !- Field 39
    1,                        !- Field 40
    Through: 5/31,            !- Field 41
    For: SummerDesignDay,     !- Field 42
    Until: 24:00,             !- Field 43
    1.0,                      !- Field 44
    For: WinterDesignDay,     !- Field 45
    Until: 24:00,             !- Field 46
    0.25,                     !- Field 47
    For: AllOtherDays,        !- Field 48
    Until: 24:00,             !- Field 49
    0.25,                     !- Field 50
    Through: 6/30,            !- Field 51
    For: SummerDesignDay,     !- Field 52
    Until: 24:00,             !- Field 53
    1.0,                      !- Field 54
    For: WinterDesignDay,     !- Field 55
    Until: 24:00,             !- Field 56
    0.25,                     !- Field 57
    For: AllOtherDays,        !- Field 58
    Until: 24:00,             !- Field 59
    0.5,                      !- Field 60
    Through: 7/31,            !- Field 61
    For: SummerDesignDay,     !- Field 62
    Until: 24:00,             !- Field 63
    1.0,                      !- Field 64
    For: WinterDesignDay,     !- Field 65
    Until: 24:00,             !- Field 66
    0.25,                     !- Field 67
    For: AllOtherDays,        !- Field 68
    Until: 24:00,             !- Field 69
    0.75,                     !- Field 70
    Through: 8/31,            !- Field 71
    For: SummerDesignDay,     !- Field 72
    Until: 24:00,             !- Field 73
    1.0,                      !- Field 74
    For: WinterDesignDay,     !- Field 75
    Until: 24:00,             !- Field 76
    0.25,                     !- Field 77
    For: AllOtherDays,        !- Field 78
    Until: 24:00,             !- Field 79
    1,                        !- Field 80
    Through: 9/30,            !- Field 81
    For: SummerDesignDay,     !- Field 82
    Until: 24:00,             !- Field 83
    1.0,                      !- Field 84
    For: WinterDesignDay,     !- Field 85
    Until: 24:00,             !- Field 86
    0.25,                     !- Field 87
    For: AllOtherDays,        !- Field 88
    Until: 24:00,             !- Field 89
    0.25,                     !- Field 90
    Through: 10/31,           !- Field 91
    For: SummerDesignDay,     !- Field 92
    Until: 24:00,             !- Field 93
    1.0,                      !- Field 94
    For: WinterDesignDay,     !- Field 95
    Until: 24:00,             !- Field 96
    0.25,                     !- Field 97
    For: AllOtherDays,        !- Field 98
    Until: 24:00,             !- Field 99
    0.5,                      !- Field 100
    Through: 11/30,           !- Field 101
    For: SummerDesignDay,     !- Field 102
    Until: 24:00,             !- Field 103
    1.0,                      !- Field 104
    For: WinterDesignDay,     !- Field 105
    Until: 24:00,             !- Field 106
    0.25,                     !- Field 107
    For: AllOtherDays,        !- Field 108
    Until: 24:00,             !- Field 109
    0.75,                     !- Field 110
    Through: 12/31,           !- Field 111
    For: SummerDesignDay,     !- Field 112
    Until: 24:00,             !- Field 113
    1.0,                      !- Field 114
    For: WinterDesignDay,     !- Field 115
    Until: 24:00,             !- Field 116
    0.25,                     !- Field 117
    For: AllOtherDays,        !- Field 118
    Until: 24:00,             !- Field 119
    1;                        !- Field 120

Schedule:Compact,
    BLDG_OCC_SCH,             !- Name
    Fraction,                 !- Schedule Type Limits Name
    Through: 12/31,           !- Field 1
    For: Weekdays,            !- Field 2
    Until: 06:00,             !- Field 3
    0.0,                      !- Field 4
    Until: 07:00,             !- Field 5
    0.1,                      !- Field 6
    Until: 08:00,             !- Field 7
    0.2,                      !- Field 8
    Until: 12:00,             !- Field 9
    0.95,                     !- Field 10
    Until: 13:00,             !- Field 11
    0.5,                      !- Field 12
    Until: 17:00,             !- Field 13
    0.95,                     !- Field 14
    Until: 18:00,             !- Field 15
    0.3,                      !- Field 16
    Until: 22:00,             !- Field 17
    0.1,                      !- Field 18
    Until: 24:00,             !- Field 19
    0.05,                     !- Field 20
    For: SummerDesignDay,     !- Field 21
    Until: 06:00,             !- Field 22
    0.000000001,              !- Field 23
    Until: 22:00,             !- Field 24
    1.0,                      !- Field 25
    Until: 24:00,             !- Field 26
    0.05,                     !- Field 27
    For: Saturday,            !- Field 28
    Until: 06:00,             !- Field 29
    0.0,                      !- Field 30
    Until: 08:00,             !- Field 31
    0.1,                      !- Field 32
    Until: 12:00,             !- Field 33
    0.3,                      !- Field 34
    Until: 17:00,             !- Field 35
    0.1,                      !- Field 36
    Until: 19:00,             !- Field 37
    0.05,                     !- Field 38
    Until: 24:00,             !- Field 39
    0.0,                      !- Field 40
    For: WinterDesignDay,     !- Field 41
    Until: 24:00,             !- Field 42
    0.0,                      !- Field 43
    For: Sunday Holidays AllOtherDays,    !- Field 44
    Until: 06:00,             !- Field 45
    0.0,                      !- Field 46
    Until: 18:00,             !- Field 47
    0.05,                     !- Field 48
    Until: 24:00,             !- Field 49
    0.0;                      !- Field 50

Schedule:Compact,
    BLDG_OCC_SCH_w_SB,        !- Name
    Fraction,                 !- Schedule Type Limits Name
    Through: 12/31,           !- Field 1
    For: Weekdays,            !- Field 2
    Until: 01:00,             !- Field 3
    0,                        !- Field 4
    Until: 02:00,             !- Field 5
    0,                        !- Field 6
    Until: 03:00,             !- Field 7
    0,                        !- Field 8
    Until: 04:00,             !- Field 9
    0,                        !- Field 10
    Until: 05:00,             !- Field 11
    0,                        !- Field 12
    Until: 06:00,             !- Field 13
    0,                        !- Field 14
    Until: 07:00,             !- Field 15
    0.1,                      !- Field 16
    Until: 08:00,             !- Field 17
    0.2,                      !- Field 18
    Until: 09:00,             !- Field 19
    0.95,                     !- Field 20
    Until: 10:00,             !- Field 21
    0.95,                     !- Field 22
    Until: 11:00,             !- Field 23
    0,                        !- Field 24
    Until: 12:00,             !- Field 25
    0.95,                     !- Field 26
    Until: 13:00,             !- Field 27
    0,                        !- Field 28
    Until: 14:00,             !- Field 29
    0.95,                     !- Field 30
    Until: 15:00,             !- Field 31
    0,                        !- Field 32
    Until: 16:00,             !- Field 33
    0.95,                     !- Field 34
    Until: 17:00,             !- Field 35
    0.95,                     !- Field 36
    Until: 18:00,             !- Field 37
    0.3,                      !- Field 38
    Until: 19:00,             !- Field 39
    0.1,                      !- Field 40
    Until: 20:00,             !- Field 41